Hello All, My name is Manish Gupta.
New Line.